Title Card Required
Created by GaussView 6.0.16

 19 19  0  0  0  0  0  0  0  0999 V2000
   -1.9723    1.1510    0.1808 C   0  0  0  0  0  0  0  0  0  0  0  0
   -0.5785    1.2158    0.1823 C   0  0  0  0  0  0  0  0  0  0  0  0
    0.2089    0.0601   -0.0088 C   0  0  0  0  0  0  0  0  0  0  0  0
   -0.4650   -1.1669   -0.1755 C   0  0  0  0  0  0  0  0  0  0  0  0
   -1.8619   -1.2323   -0.1805 C   0  0  0  0  0  0  0  0  0  0  0  0
   -2.6239   -0.0743   -0.0048 C   0  0  0  0  0  0  0  0  0  0  0  0
   -2.5550    2.0631    0.3366 H   0  0  0  0  0  0  0  0  0  0  0  0
   -0.0927    2.1781    0.3570 H   0  0  0  0  0  0  0  0  0  0  0  0
    0.1031   -2.0878   -0.3174 H   0  0  0  0  0  0  0  0  0  0  0  0
   -2.3557   -2.1977   -0.3213 H   0  0  0  0  0  0  0  0  0  0  0  0
   -3.7158   -0.1253   -0.0028 H   0  0  0  0  0  0  0  0  0  0  0  0
    1.6999    0.1246   -0.0216 C   0  0  0  0  0  0  0  0  0  0  0  0
    2.3632    1.2535   -0.3362 C   0  0  0  0  0  0  0  0  0  0  0  0
    2.4553   -1.1399    0.3152 C   0  0  0  0  0  0  0  0  0  0  0  0
    3.5335   -0.9456    0.4117 H   0  0  0  0  0  0  0  0  0  0  0  0
    2.0940   -1.5863    1.2567 H   0  0  0  0  0  0  0  0  0  0  0  0
    2.3253   -1.9057   -0.4688 H   0  0  0  0  0  0  0  0  0  0  0  0
    1.8521    2.1728   -0.6335 H   0  0  0  0  0  0  0  0  0  0  0  0
    3.4569    1.2841   -0.3235 H   0  0  0  0  0  0  0  0  0  0  0  0
  1  2  4  0  0  0  0
  1  6  4  0  0  0  0
  1  7  1  0  0  0  0
  2  3  4  0  0  0  0
  2  8  1  0  0  0  0
  3  4  4  0  0  0  0
  3 12  1  0  0  0  0
  4  5  4  0  0  0  0
  4  9  1  0  0  0  0
  5  6  4  0  0  0  0
  5 10  1  0  0  0  0
  6 11  1  0  0  0  0
 12 13  2  0  0  0  0
 12 14  1  0  0  0  0
 13 18  1  0  0  0  0
 13 19  1  0  0  0  0
 14 15  1  0  0  0  0
 14 16  1  0  0  0  0
 14 17  1  0  0  0  0
M  END
$$$$