Title Card Required
Created by GaussView 6.0.16

 19 19  0  0  0  0  0  0  0  0999 V2000
    1.9958    0.8674   -0.0954 C   0  0  0  0  0  0  0  0  0  0  0  0
    0.6064    0.9381   -0.0805 C   0  0  0  0  0  0  0  0  0  0  0  0
   -0.2248   -0.1931    0.0509 C   0  0  0  0  0  0  0  0  0  0  0  0
    0.4487   -1.4305    0.1504 C   0  0  0  0  0  0  0  0  0  0  0  0
    1.8418   -1.5266    0.1478 C   0  0  0  0  0  0  0  0  0  0  0  0
    2.6233   -0.3744    0.0251 C   0  0  0  0  0  0  0  0  0  0  0  0
    2.5622    1.7945   -0.2069 H   0  0  0  0  0  0  0  0  0  0  0  0
   -0.1371   -2.3456    0.2449 H   0  0  0  0  0  0  0  0  0  0  0  0
    2.3158   -2.5068    0.2391 H   0  0  0  0  0  0  0  0  0  0  0  0
    3.7141   -0.4370    0.0180 H   0  0  0  0  0  0  0  0  0  0  0  0
   -1.7141   -0.1312    0.0547 C   0  0  0  0  0  0  0  0  0  0  0  0
   -2.4072    0.9586    0.4381 C   0  0  0  0  0  0  0  0  0  0  0  0
   -3.5013    0.9469    0.4259 H   0  0  0  0  0  0  0  0  0  0  0  0
   -1.9272    1.8726    0.7874 H   0  0  0  0  0  0  0  0  0  0  0  0
   -2.4474   -1.3835   -0.3716 C   0  0  0  0  0  0  0  0  0  0  0  0
   -3.5257   -1.1921   -0.4714 H   0  0  0  0  0  0  0  0  0  0  0  0
   -2.0698   -1.7649   -1.3349 H   0  0  0  0  0  0  0  0  0  0  0  0
   -2.3232   -2.1966    0.3641 H   0  0  0  0  0  0  0  0  0  0  0  0
    0.0619    2.1645   -0.2204 F   0  0  0  0  0  0  0  0  0  0  0  0
  1  2  4  0  0  0  0
  1  6  4  0  0  0  0
  1  7  1  0  0  0  0
  2  3  4  0  0  0  0
  2 19  1  0  0  0  0
  3  4  4  0  0  0  0
  3 11  1  0  0  0  0
  4  5  4  0  0  0  0
  4  8  1  0  0  0  0
  5  6  4  0  0  0  0
  5  9  1  0  0  0  0
  6 10  1  0  0  0  0
 11 12  2  0  0  0  0
 11 15  1  0  0  0  0
 12 13  1  0  0  0  0
 12 14  1  0  0  0  0
 15 16  1  0  0  0  0
 15 17  1  0  0  0  0
 15 18  1  0  0  0  0
M  END
$$$$