Title Card Required

Created by GaussView 6.0.16
 23 23  0  0  0  0  0  0  0  0999 V2000
   -1.4386   -0.1951   -0.0238 C   0  0  0  0  0  0  0  0  0  0  0  0
   -0.1431   -0.7337   -0.0607 C   0  0  0  0  0  0  0  0  0  0  0  0
    0.9956    0.0815    0.0367 C   0  0  0  0  0  0  0  0  0  0  0  0
    0.8054    1.4765    0.1506 C   0  0  0  0  0  0  0  0  0  0  0  0
   -0.4824    2.0108    0.1900 C   0  0  0  0  0  0  0  0  0  0  0  0
   -1.6144    1.1931    0.1055 C   0  0  0  0  0  0  0  0  0  0  0  0
    1.6617    2.1477    0.2233 H   0  0  0  0  0  0  0  0  0  0  0  0
   -0.6147    3.0919    0.2879 H   0  0  0  0  0  0  0  0  0  0  0  0
   -2.6088    1.6386    0.1324 H   0  0  0  0  0  0  0  0  0  0  0  0
    2.3688   -0.5050    0.0108 C   0  0  0  0  0  0  0  0  0  0  0  0
    2.6087   -1.7784    0.3756 C   0  0  0  0  0  0  0  0  0  0  0  0
    3.6202   -2.1935    0.3342 H   0  0  0  0  0  0  0  0  0  0  0  0
    1.8215   -2.4430    0.7408 H   0  0  0  0  0  0  0  0  0  0  0  0
    3.5009    0.3955   -0.4252 C   0  0  0  0  0  0  0  0  0  0  0  0
    4.4387   -0.1685   -0.5348 H   0  0  0  0  0  0  0  0  0  0  0  0
    3.2752    0.8901   -1.3848 H   0  0  0  0  0  0  0  0  0  0  0  0
    3.6804    1.1987    0.3098 H   0  0  0  0  0  0  0  0  0  0  0  0
   -0.0534   -1.8135   -0.1894 H   0  0  0  0  0  0  0  0  0  0  0  0
   -2.4528   -1.0887   -0.1296 O   0  0  0  0  0  0  0  0  0  0  0  0
   -3.7897   -0.6243   -0.1161 C   0  0  0  0  0  0  0  0  0  0  0  0
   -4.4301   -1.5125   -0.2111 H   0  0  0  0  0  0  0  0  0  0  0  0
   -4.0378   -0.1072    0.8285 H   0  0  0  0  0  0  0  0  0  0  0  0
   -3.9987    0.0565   -0.9612 H   0  0  0  0  0  0  0  0  0  0  0  0
  1  2  4  0  0  0  0
  1  6  4  0  0  0  0
  1 19  1  0  0  0  0
  2  3  4  0  0  0  0
  2 18  1  0  0  0  0
  3  4  4  0  0  0  0
  3 10  1  0  0  0  0
  4  5  4  0  0  0  0
  4  7  1  0  0  0  0
  5  6  4  0  0  0  0
  5  8  1  0  0  0  0
  6  9  1  0  0  0  0
 10 11  2  0  0  0  0
 10 14  1  0  0  0  0
 11 12  1  0  0  0  0
 11 13  1  0  0  0  0
 14 15  1  0  0  0  0
 14 16  1  0  0  0  0
 14 17  1  0  0  0  0
 19 20  1  0  0  0  0
 20 21  1  0  0  0  0
 20 22  1  0  0  0  0
 20 23  1  0  0  0  0
M  END
