Title Card Required

Created by GaussView 6.0.16
 22 22  0  0  0  0  0  0  0  0999 V2000
    1.8388   -0.3904   -0.0574 C   0  0  0  0  0  0  0  0  0  0  0  0
    0.5066   -0.8180   -0.0807 C   0  0  0  0  0  0  0  0  0  0  0  0
   -0.5768    0.0799    0.0332 C   0  0  0  0  0  0  0  0  0  0  0  0
   -0.2813    1.4511    0.1491 C   0  0  0  0  0  0  0  0  0  0  0  0
    1.0452    1.8944    0.1778 C   0  0  0  0  0  0  0  0  0  0  0  0
    2.0986    0.9859    0.0781 C   0  0  0  0  0  0  0  0  0  0  0  0
   -1.0853    2.1841    0.2330 H   0  0  0  0  0  0  0  0  0  0  0  0
    1.2548    2.9631    0.2778 H   0  0  0  0  0  0  0  0  0  0  0  0
    3.1332    1.3414    0.0952 H   0  0  0  0  0  0  0  0  0  0  0  0
   -1.9889   -0.4034    0.0198 C   0  0  0  0  0  0  0  0  0  0  0  0
   -2.3186   -1.6577    0.3819 C   0  0  0  0  0  0  0  0  0  0  0  0
   -1.5787   -2.3796    0.7373 H   0  0  0  0  0  0  0  0  0  0  0  0
   -3.3581   -1.9973    0.3499 H   0  0  0  0  0  0  0  0  0  0  0  0
   -3.0571    0.5794   -0.3997 C   0  0  0  0  0  0  0  0  0  0  0  0
   -4.0348    0.0862   -0.5016 H   0  0  0  0  0  0  0  0  0  0  0  0
   -3.1697    1.3896    0.3410 H   0  0  0  0  0  0  0  0  0  0  0  0
   -2.8060    1.0616   -1.3593 H   0  0  0  0  0  0  0  0  0  0  0  0
    0.3043   -1.8833   -0.2140 H   0  0  0  0  0  0  0  0  0  0  0  0
    2.9792   -1.3703   -0.1859 C   0  0  0  0  0  0  0  0  0  0  0  0
    2.6199   -2.4050   -0.2909 H   0  0  0  0  0  0  0  0  0  0  0  0
    3.6064   -1.1377   -1.0633 H   0  0  0  0  0  0  0  0  0  0  0  0
    3.6392   -1.3284    0.6972 H   0  0  0  0  0  0  0  0  0  0  0  0
  1  2  4  0  0  0  0
  1  6  4  0  0  0  0
  1 19  1  0  0  0  0
  2  3  4  0  0  0  0
  2 18  1  0  0  0  0
  3  4  4  0  0  0  0
  3 10  1  0  0  0  0
  4  5  4  0  0  0  0
  4  7  1  0  0  0  0
  5  6  4  0  0  0  0
  5  8  1  0  0  0  0
  6  9  1  0  0  0  0
 10 11  2  0  0  0  0
 10 14  1  0  0  0  0
 11 12  1  0  0  0  0
 11 13  1  0  0  0  0
 14 15  1  0  0  0  0
 14 16  1  0  0  0  0
 14 17  1  0  0  0  0
 19 20  1  0  0  0  0
 19 21  1  0  0  0  0
 19 22  1  0  0  0  0
M  END
$$$$