Title Card Required

Created by GaussView 6.0.16
 19 19  0  0  0  0  0  0  0  0999 V2000
    1.8207   -0.4685   -0.0575 C   0  0  0  0  0  0  0  0  0  0  0  0
    0.4956   -0.8812   -0.0808 C   0  0  0  0  0  0  0  0  0  0  0  0
   -0.5398    0.0701    0.0273 C   0  0  0  0  0  0  0  0  0  0  0  0
   -0.1756    1.4282    0.1354 C   0  0  0  0  0  0  0  0  0  0  0  0
    1.1675    1.8175    0.1588 C   0  0  0  0  0  0  0  0  0  0  0  0
    2.1889    0.8702    0.0627 C   0  0  0  0  0  0  0  0  0  0  0  0
   -0.9444    2.1971    0.2159 H   0  0  0  0  0  0  0  0  0  0  0  0
    1.4221    2.8763    0.2516 H   0  0  0  0  0  0  0  0  0  0  0  0
    3.2453    1.1455    0.0710 H   0  0  0  0  0  0  0  0  0  0  0  0
   -1.9736   -0.3439    0.0172 C   0  0  0  0  0  0  0  0  0  0  0  0
   -2.3569   -1.5974    0.3239 C   0  0  0  0  0  0  0  0  0  0  0  0
   -1.6495   -2.3739    0.6259 H   0  0  0  0  0  0  0  0  0  0  0  0
   -3.4127   -1.8825    0.2978 H   0  0  0  0  0  0  0  0  0  0  0  0
   -2.9997    0.7080   -0.3334 C   0  0  0  0  0  0  0  0  0  0  0  0
   -4.0020    0.2667   -0.4320 H   0  0  0  0  0  0  0  0  0  0  0  0
   -3.0551    1.4893    0.4439 H   0  0  0  0  0  0  0  0  0  0  0  0
   -2.7481    1.2178   -1.2785 H   0  0  0  0  0  0  0  0  0  0  0  0
    0.2882   -1.9449   -0.2037 H   0  0  0  0  0  0  0  0  0  0  0  0
    2.7882   -1.4011   -0.1680 F   0  0  0  0  0  0  0  0  0  0  0  0
  1  2  4  0  0  0  0
  1  6  4  0  0  0  0
  1 19  1  0  0  0  0
  2  3  4  0  0  0  0
  2 18  1  0  0  0  0
  3  4  4  0  0  0  0
  3 10  1  0  0  0  0
  4  5  4  0  0  0  0
  4  7  1  0  0  0  0
  5  6  4  0  0  0  0
  5  8  1  0  0  0  0
  6  9  1  0  0  0  0
 10 11  2  0  0  0  0
 10 14  1  0  0  0  0
 11 12  1  0  0  0  0
 11 13  1  0  0  0  0
 14 15  1  0  0  0  0
 14 16  1  0  0  0  0
 14 17  1  0  0  0  0
M  END
$$$$