Title Card Required

Created by GaussView 6.0.16
 19 19  0  0  0  0  0  0  0  0999 V2000
    1.5101    0.0038   -0.0122 C   0  0  0  0  0  0  0  0  0  0  0  0
    0.2738   -0.6385   -0.0483 C   0  0  0  0  0  0  0  0  0  0  0  0
   -0.9193    0.1078    0.0393 C   0  0  0  0  0  0  0  0  0  0  0  0
   -0.8141    1.5097    0.1361 C   0  0  0  0  0  0  0  0  0  0  0  0
    0.4337    2.1379    0.1733 C   0  0  0  0  0  0  0  0  0  0  0  0
    1.6129    1.3939    0.1017 C   0  0  0  0  0  0  0  0  0  0  0  0
   -1.7132    2.1239    0.1970 H   0  0  0  0  0  0  0  0  0  0  0  0
    0.4903    3.2261    0.2586 H   0  0  0  0  0  0  0  0  0  0  0  0
    2.5916    1.8759    0.1242 H   0  0  0  0  0  0  0  0  0  0  0  0
   -2.2512   -0.5654    0.0180 C   0  0  0  0  0  0  0  0  0  0  0  0
   -2.4067   -1.8475    0.3973 C   0  0  0  0  0  0  0  0  0  0  0  0
   -1.5793   -2.4562    0.7711 H   0  0  0  0  0  0  0  0  0  0  0  0
   -3.3891   -2.3274    0.3612 H   0  0  0  0  0  0  0  0  0  0  0  0
   -3.4380    0.2563   -0.4269 C   0  0  0  0  0  0  0  0  0  0  0  0
   -4.3362   -0.3693   -0.5328 H   0  0  0  0  0  0  0  0  0  0  0  0
   -3.6714    1.0513    0.3020 H   0  0  0  0  0  0  0  0  0  0  0  0
   -3.2435    0.7565   -1.3904 H   0  0  0  0  0  0  0  0  0  0  0  0
    0.2440   -1.7219   -0.1664 H   0  0  0  0  0  0  0  0  0  0  0  0
    2.9765   -0.9592   -0.1291 Cl  0  0  0  0  0  0  0  0  0  0  0  0
  1  2  4  0  0  0  0
  1  6  4  0  0  0  0
  1 19  1  0  0  0  0
  2  3  4  0  0  0  0
  2 18  1  0  0  0  0
  3  4  4  0  0  0  0
  3 10  1  0  0  0  0
  4  5  4  0  0  0  0
  4  7  1  0  0  0  0
  5  6  4  0  0  0  0
  5  8  1  0  0  0  0
  6  9  1  0  0  0  0
 10 11  2  0  0  0  0
 10 14  1  0  0  0  0
 11 12  1  0  0  0  0
 11 13  1  0  0  0  0
 14 15  1  0  0  0  0
 14 16  1  0  0  0  0
 14 17  1  0  0  0  0
M  END
$$$$