Title Card Required

Created by GaussView 6.0.16
 23 23  0  0  0  0  0  0  0  0999 V2000
    0.9199    1.4316    0.1412 C   0  0  0  0  0  0  0  0  0  0  0  0
   -0.4641    1.3320    0.1316 C   0  0  0  0  0  0  0  0  0  0  0  0
   -1.1216    0.0863   -0.0017 C   0  0  0  0  0  0  0  0  0  0  0  0
   -0.3013   -1.0516   -0.1025 C   0  0  0  0  0  0  0  0  0  0  0  0
    1.0963   -0.9697   -0.0974 C   0  0  0  0  0  0  0  0  0  0  0  0
    1.7218    0.2797    0.0220 C   0  0  0  0  0  0  0  0  0  0  0  0
   -0.7485   -2.0419   -0.2017 H   0  0  0  0  0  0  0  0  0  0  0  0
    1.6810   -1.8856   -0.1858 H   0  0  0  0  0  0  0  0  0  0  0  0
   -2.6074   -0.0231   -0.0250 C   0  0  0  0  0  0  0  0  0  0  0  0
   -3.4087    1.0330   -0.2680 C   0  0  0  0  0  0  0  0  0  0  0  0
   -3.0212    2.0297   -0.4935 H   0  0  0  0  0  0  0  0  0  0  0  0
   -4.4972    0.9240   -0.2611 H   0  0  0  0  0  0  0  0  0  0  0  0
   -3.2090   -1.3874    0.2223 C   0  0  0  0  0  0  0  0  0  0  0  0
   -4.3056   -1.3336    0.2848 H   0  0  0  0  0  0  0  0  0  0  0  0
   -2.9564   -2.0910   -0.5895 H   0  0  0  0  0  0  0  0  0  0  0  0
   -2.8286   -1.8331    1.1569 H   0  0  0  0  0  0  0  0  0  0  0  0
   -1.0500    2.2459    0.2487 H   0  0  0  0  0  0  0  0  0  0  0  0
    1.4143    2.3996    0.2514 H   0  0  0  0  0  0  0  0  0  0  0  0
    3.0603    0.4765    0.0412 O   0  0  0  0  0  0  0  0  0  0  0  0
    3.9255   -0.6396   -0.0658 C   0  0  0  0  0  0  0  0  0  0  0  0
    4.9506   -0.2452   -0.0295 H   0  0  0  0  0  0  0  0  0  0  0  0
    3.7870   -1.3492    0.7699 H   0  0  0  0  0  0  0  0  0  0  0  0
    3.7848   -1.1791   -1.0198 H   0  0  0  0  0  0  0  0  0  0  0  0
  1  2  4  0  0  0  0
  1  6  4  0  0  0  0
  1 18  1  0  0  0  0
  2  3  4  0  0  0  0
  2 17  1  0  0  0  0
  3  4  4  0  0  0  0
  3  9  1  0  0  0  0
  4  5  4  0  0  0  0
  4  7  1  0  0  0  0
  5  6  4  0  0  0  0
  5  8  1  0  0  0  0
  6 19  1  0  0  0  0
  9 10  2  0  0  0  0
  9 13  1  0  0  0  0
 10 11  1  0  0  0  0
 10 12  1  0  0  0  0
 13 14  1  0  0  0  0
 13 15  1  0  0  0  0
 13 16  1  0  0  0  0
 19 20  1  0  0  0  0
 20 21  1  0  0  0  0
 20 22  1  0  0  0  0
 20 23  1  0  0  0  0
M  END
$$$$