Title Card Required

Created by GaussView 6.0.16
 22 22  0  0  0  0  0  0  0  0999 V2000
    1.4708    1.1828    0.1655 C   0  0  0  0  0  0  0  0  0  0  0  0
    0.0794    1.2313    0.1663 C   0  0  0  0  0  0  0  0  0  0  0  0
   -0.6988    0.0658   -0.0076 C   0  0  0  0  0  0  0  0  0  0  0  0
   -0.0031   -1.1487   -0.1574 C   0  0  0  0  0  0  0  0  0  0  0  0
    1.3949   -1.1932   -0.1613 C   0  0  0  0  0  0  0  0  0  0  0  0
    2.1621   -0.0315   -0.0028 C   0  0  0  0  0  0  0  0  0  0  0  0
   -0.5524   -2.0828   -0.2869 H   0  0  0  0  0  0  0  0  0  0  0  0
    1.8978   -2.1564   -0.2891 H   0  0  0  0  0  0  0  0  0  0  0  0
   -2.1896    0.1094   -0.0199 C   0  0  0  0  0  0  0  0  0  0  0  0
   -2.8732    1.2348   -0.3037 C   0  0  0  0  0  0  0  0  0  0  0  0
   -2.3795    2.1717   -0.5741 H   0  0  0  0  0  0  0  0  0  0  0  0
   -3.9671    1.2455   -0.2900 H   0  0  0  0  0  0  0  0  0  0  0  0
   -2.9262   -1.1749    0.2825 C   0  0  0  0  0  0  0  0  0  0  0  0
   -4.0086   -1.0019    0.3714 H   0  0  0  0  0  0  0  0  0  0  0  0
   -2.7739   -1.9221   -0.5152 H   0  0  0  0  0  0  0  0  0  0  0  0
   -2.5673   -1.6345    1.2187 H   0  0  0  0  0  0  0  0  0  0  0  0
   -0.4134    2.1926    0.3273 H   0  0  0  0  0  0  0  0  0  0  0  0
    2.0389    2.1070    0.3098 H   0  0  0  0  0  0  0  0  0  0  0  0
    3.6691   -0.0640   -0.0044 C   0  0  0  0  0  0  0  0  0  0  0  0
    4.0778    0.5211   -0.8463 H   0  0  0  0  0  0  0  0  0  0  0  0
    4.0789    0.3796    0.9189 H   0  0  0  0  0  0  0  0  0  0  0  0
    4.0555   -1.0909   -0.0885 H   0  0  0  0  0  0  0  0  0  0  0  0
  1  2  4  0  0  0  0
  1  6  4  0  0  0  0
  1 18  1  0  0  0  0
  2  3  4  0  0  0  0
  2 17  1  0  0  0  0
  3  4  4  0  0  0  0
  3  9  1  0  0  0  0
  4  5  4  0  0  0  0
  4  7  1  0  0  0  0
  5  6  4  0  0  0  0
  5  8  1  0  0  0  0
  6 19  1  0  0  0  0
  9 10  2  0  0  0  0
  9 13  1  0  0  0  0
 10 11  1  0  0  0  0
 10 12  1  0  0  0  0
 13 14  1  0  0  0  0
 13 15  1  0  0  0  0
 13 16  1  0  0  0  0
 19 20  1  0  0  0  0
 19 21  1  0  0  0  0
 19 22  1  0  0  0  0
M  END
$$$$