Title Card Required

Created by GaussView 6.0.16
 19 19  0  0  0  0  0  0  0  0999 V2000
   -1.5162    1.1973   -0.1737 C   0  0  0  0  0  0  0  0  0  0  0  0
   -0.1226    1.2342   -0.1744 C   0  0  0  0  0  0  0  0  0  0  0  0
    0.6497    0.0667    0.0080 C   0  0  0  0  0  0  0  0  0  0  0  0
   -0.0422   -1.1517    0.1659 C   0  0  0  0  0  0  0  0  0  0  0  0
   -1.4385   -1.2063    0.1718 C   0  0  0  0  0  0  0  0  0  0  0  0
   -2.1565   -0.0274    0.0044 C   0  0  0  0  0  0  0  0  0  0  0  0
    0.5095   -2.0829    0.3010 H   0  0  0  0  0  0  0  0  0  0  0  0
   -1.9730   -2.1495    0.3029 H   0  0  0  0  0  0  0  0  0  0  0  0
    2.1409    0.1099    0.0208 C   0  0  0  0  0  0  0  0  0  0  0  0
    2.8225    1.2318    0.3207 C   0  0  0  0  0  0  0  0  0  0  0  0
    2.3278    2.1637    0.6064 H   0  0  0  0  0  0  0  0  0  0  0  0
    3.9163    1.2441    0.3059 H   0  0  0  0  0  0  0  0  0  0  0  0
    2.8765   -1.1704   -0.2995 C   0  0  0  0  0  0  0  0  0  0  0  0
    3.9580   -0.9948   -0.3933 H   0  0  0  0  0  0  0  0  0  0  0  0
    2.7309   -1.9256    0.4920 H   0  0  0  0  0  0  0  0  0  0  0  0
    2.5124   -1.6209   -1.2381 H   0  0  0  0  0  0  0  0  0  0  0  0
    0.3722    2.1926   -0.3419 H   0  0  0  0  0  0  0  0  0  0  0  0
   -2.1124    2.1002   -0.3214 H   0  0  0  0  0  0  0  0  0  0  0  0
   -3.5024   -0.0702    0.0025 F   0  0  0  0  0  0  0  0  0  0  0  0
  1  2  4  0  0  0  0
  1  6  4  0  0  0  0
  1 18  1  0  0  0  0
  2  3  4  0  0  0  0
  2 17  1  0  0  0  0
  3  4  4  0  0  0  0
  3  9  1  0  0  0  0
  4  5  4  0  0  0  0
  4  7  1  0  0  0  0
  5  6  4  0  0  0  0
  5  8  1  0  0  0  0
  6 19  1  0  0  0  0
  9 10  2  0  0  0  0
  9 13  1  0  0  0  0
 10 11  1  0  0  0  0
 10 12  1  0  0  0  0
 13 14  1  0  0  0  0
 13 15  1  0  0  0  0
 13 16  1  0  0  0  0
M  END
$$$$