Title Card Required

Created by GaussView 6.0.16
 19 19  0  0  0  0  0  0  0  0999 V2000
   -1.0669    1.2146   -0.1709 C   0  0  0  0  0  0  0  0  0  0  0  0
    0.3264    1.2411   -0.1711 C   0  0  0  0  0  0  0  0  0  0  0  0
    1.0913    0.0689    0.0074 C   0  0  0  0  0  0  0  0  0  0  0  0
    0.3893   -1.1434    0.1614 C   0  0  0  0  0  0  0  0  0  0  0  0
   -1.0068   -1.1881    0.1674 C   0  0  0  0  0  0  0  0  0  0  0  0
   -1.7291   -0.0051    0.0036 C   0  0  0  0  0  0  0  0  0  0  0  0
    0.9324   -2.0802    0.2939 H   0  0  0  0  0  0  0  0  0  0  0  0
   -1.5310   -2.1366    0.2975 H   0  0  0  0  0  0  0  0  0  0  0  0
    2.5822    0.1003    0.0199 C   0  0  0  0  0  0  0  0  0  0  0  0
    3.2710    1.2193    0.3144 C   0  0  0  0  0  0  0  0  0  0  0  0
    2.7828    2.1565    0.5934 H   0  0  0  0  0  0  0  0  0  0  0  0
    4.3649    1.2232    0.3026 H   0  0  0  0  0  0  0  0  0  0  0  0
    3.3082   -1.1874   -0.2922 C   0  0  0  0  0  0  0  0  0  0  0  0
    4.3910   -1.0202   -0.3853 H   0  0  0  0  0  0  0  0  0  0  0  0
    3.1554   -1.9371    0.5031 H   0  0  0  0  0  0  0  0  0  0  0  0
    2.9423   -1.6398   -1.2292 H   0  0  0  0  0  0  0  0  0  0  0  0
    0.8259    2.1977   -0.3356 H   0  0  0  0  0  0  0  0  0  0  0  0
   -1.6400    2.1322   -0.3165 H   0  0  0  0  0  0  0  0  0  0  0  0
   -3.4834   -0.0481    0.0021 Cl  0  0  0  0  0  0  0  0  0  0  0  0
  1  2  4  0  0  0  0
  1  6  4  0  0  0  0
  1 18  1  0  0  0  0
  2  3  4  0  0  0  0
  2 17  1  0  0  0  0
  3  4  4  0  0  0  0
  3  9  1  0  0  0  0
  4  5  4  0  0  0  0
  4  7  1  0  0  0  0
  5  6  4  0  0  0  0
  5  8  1  0  0  0  0
  6 19  1  0  0  0  0
  9 10  2  0  0  0  0
  9 13  1  0  0  0  0
 10 11  1  0  0  0  0
 10 12  1  0  0  0  0
 13 14  1  0  0  0  0
 13 15  1  0  0  0  0
 13 16  1  0  0  0  0
M  END
$$$$