Title Card Required

Created by GaussView 6.0.16
 25 25  0  0  0  0  0  0  0  0999 V2000
   -0.2097    1.3686    0.1408 C   0  0  0  0  0  0  0  0  0  0  0  0
    1.1782    1.2898    0.1313 C   0  0  0  0  0  0  0  0  0  0  0  0
    1.8416    0.0506   -0.0097 C   0  0  0  0  0  0  0  0  0  0  0  0
    1.0429   -1.1070   -0.1148 C   0  0  0  0  0  0  0  0  0  0  0  0
   -0.3497   -1.0323   -0.1092 C   0  0  0  0  0  0  0  0  0  0  0  0
   -0.9924    0.2082    0.0168 C   0  0  0  0  0  0  0  0  0  0  0  0
    1.5105   -2.0872   -0.2169 H   0  0  0  0  0  0  0  0  0  0  0  0
   -0.9443   -1.9421   -0.2018 H   0  0  0  0  0  0  0  0  0  0  0  0
    3.3292   -0.0414   -0.0330 C   0  0  0  0  0  0  0  0  0  0  0  0
    4.0998    1.0062   -0.3832 C   0  0  0  0  0  0  0  0  0  0  0  0
    5.1906    0.9237   -0.3848 H   0  0  0  0  0  0  0  0  0  0  0  0
    3.6820    1.9659   -0.6976 H   0  0  0  0  0  0  0  0  0  0  0  0
    3.9537   -1.3684    0.3291 C   0  0  0  0  0  0  0  0  0  0  0  0
    5.0471   -1.2830    0.4087 H   0  0  0  0  0  0  0  0  0  0  0  0
    3.5620   -1.7503    1.2867 H   0  0  0  0  0  0  0  0  0  0  0  0
    3.7350   -2.1363   -0.4326 H   0  0  0  0  0  0  0  0  0  0  0  0
    1.7594    2.2050    0.2576 H   0  0  0  0  0  0  0  0  0  0  0  0
   -0.7104    2.3322    0.2547 H   0  0  0  0  0  0  0  0  0  0  0  0
   -2.4768    0.3479    0.0350 C   0  0  0  0  0  0  0  0  0  0  0  0
   -3.0640    1.4032    0.1488 O   0  0  0  0  0  0  0  0  0  0  0  0
   -3.1094   -0.8307   -0.0904 O   0  0  0  0  0  0  0  0  0  0  0  0
   -4.5389   -0.7924   -0.0846 C   0  0  0  0  0  0  0  0  0  0  0  0
   -4.9198   -0.1816   -0.9182 H   0  0  0  0  0  0  0  0  0  0  0  0
   -4.8743   -1.8315   -0.1959 H   0  0  0  0  0  0  0  0  0  0  0  0
   -4.9177   -0.3729    0.8608 H   0  0  0  0  0  0  0  0  0  0  0  0
  1  2  4  0  0  0  0
  1  6  4  0  0  0  0
  1 18  1  0  0  0  0
  2  3  4  0  0  0  0
  2 17  1  0  0  0  0
  3  4  4  0  0  0  0
  3  9  1  0  0  0  0
  4  5  4  0  0  0  0
  4  7  1  0  0  0  0
  5  6  4  0  0  0  0
  5  8  1  0  0  0  0
  6 19  1  0  0  0  0
  9 10  2  0  0  0  0
  9 13  1  0  0  0  0
 10 11  1  0  0  0  0
 10 12  1  0  0  0  0
 13 14  1  0  0  0  0
 13 15  1  0  0  0  0
 13 16  1  0  0  0  0
 19 20  2  0  0  0  0
 19 21  4  0  0  0  0
 21 22  1  0  0  0  0
 22 23  1  0  0  0  0
 22 24  1  0  0  0  0
 22 25  1  0  0  0  0
M  END
$$$$