Title Card Required

Created by GaussView 6.0.16
 27 27  0  0  0  0  0  0  0  0999 V2000
   -0.7814    0.7922   -0.2076 C   0  0  0  0  0  0  0  0  0  0  0  0
    0.5956    0.9757   -0.1646 C   0  0  0  0  0  0  0  0  0  0  0  0
    1.4995   -0.1036   -0.0423 C   0  0  0  0  0  0  0  0  0  0  0  0
    0.9409   -1.3880    0.0665 C   0  0  0  0  0  0  0  0  0  0  0  0
   -0.4436   -1.5958    0.0241 C   0  0  0  0  0  0  0  0  0  0  0  0
   -1.3240   -0.5178   -0.1211 C   0  0  0  0  0  0  0  0  0  0  0  0
    0.9496    2.0062   -0.2217 H   0  0  0  0  0  0  0  0  0  0  0  0
    1.5829   -2.2633    0.1718 H   0  0  0  0  0  0  0  0  0  0  0  0
   -0.8280   -2.6134    0.0965 H   0  0  0  0  0  0  0  0  0  0  0  0
    2.9745    0.1080   -0.0170 C   0  0  0  0  0  0  0  0  0  0  0  0
    3.5489    1.2604   -0.4141 C   0  0  0  0  0  0  0  0  0  0  0  0
    4.6343    1.3896   -0.3701 H   0  0  0  0  0  0  0  0  0  0  0  0
    2.9742    2.1037   -0.8048 H   0  0  0  0  0  0  0  0  0  0  0  0
    3.8335   -1.0384    0.4648 C   0  0  0  0  0  0  0  0  0  0  0  0
    4.8905   -0.7426    0.5316 H   0  0  0  0  0  0  0  0  0  0  0  0
    3.5099   -1.3966    1.4566 H   0  0  0  0  0  0  0  0  0  0  0  0
    3.7716   -1.9020   -0.2194 H   0  0  0  0  0  0  0  0  0  0  0  0
   -1.5876    1.8821   -0.3768 O   0  0  0  0  0  0  0  0  0  0  0  0
   -2.6717   -0.6194   -0.1937 O   0  0  0  0  0  0  0  0  0  0  0  0
   -2.4219    2.2345    0.7223 C   0  0  0  0  0  0  0  0  0  0  0  0
   -3.1587    1.4475    0.9510 H   0  0  0  0  0  0  0  0  0  0  0  0
   -1.8216    2.4412    1.6279 H   0  0  0  0  0  0  0  0  0  0  0  0
   -2.9561    3.1523    0.4353 H   0  0  0  0  0  0  0  0  0  0  0  0
   -3.2740   -1.8993   -0.1126 C   0  0  0  0  0  0  0  0  0  0  0  0
   -4.3578   -1.7385   -0.1947 H   0  0  0  0  0  0  0  0  0  0  0  0
   -2.9471   -2.5580   -0.9369 H   0  0  0  0  0  0  0  0  0  0  0  0
   -3.0580   -2.3947    0.8509 H   0  0  0  0  0  0  0  0  0  0  0  0
  1  2  4  0  0  0  0
  1  6  4  0  0  0  0
  1 18  1  0  0  0  0
  2  3  4  0  0  0  0
  2  7  1  0  0  0  0
  3  4  4  0  0  0  0
  3 10  1  0  0  0  0
  4  5  4  0  0  0  0
  4  8  1  0  0  0  0
  5  6  4  0  0  0  0
  5  9  1  0  0  0  0
  6 19  1  0  0  0  0
 10 11  2  0  0  0  0
 10 14  1  0  0  0  0
 11 12  1  0  0  0  0
 11 13  1  0  0  0  0
 14 15  1  0  0  0  0
 14 16  1  0  0  0  0
 14 17  1  0  0  0  0
 18 20  1  0  0  0  0
 19 24  1  0  0  0  0
 20 21  1  0  0  0  0
 20 22  1  0  0  0  0
 20 23  1  0  0  0  0
 24 25  1  0  0  0  0
 24 26  1  0  0  0  0
 24 27  1  0  0  0  0
M  END
$$$$